<?xml version="1.0" encoding="UTF-8"?>
<routes>
   <route id="1000" town="Town01">
      <waypoint pitch="360.0" roll="0.0" x="1.612621784210205" y="165.71238708496094" yaw="269.8846435546875" z="0.0" />
      <waypoint pitch="360.0" roll="0.0" x="1.3654530048370361" y="135.93744659423828" yaw="269.8846435546875" z="0.0" />
   </route>
   <route id="2000" town="Town02">
      <waypoint pitch="360.0" roll="0.0" x="60.52153015136719" y="188.1864013671875" yaw="179.95350646972656" z="0.0" />
      <waypoint pitch="360.0" roll="0.0" x="41.70449447631836" y="202.53211975097656" yaw="90.02497863769531" z="0.0" />
      <waypoint pitch="360.0" roll="0.0" x="41.695037841796875" y="224.2197723388672" yaw="90.02497863769531" z="0.0" />
   </route>
</routes>
